powerflow/autotest/test_balanced_stepdown_D-grY_phAB.glm
// $id$
//	Copyright (C) 2008 Battelle Memorial Institute

// An example case of IEEE 4 node system using balanced step down D-grndY tranformer.
//  Using two phase line at the end node,
//  Using static load at the node 4.


clock {
	timestamp '2000-01-01 0:00:00';
	timezone EST+5EDT;
}

#define stylesheet="C:\Documents and Settings\D3Y074\My Documents\GridLab-D\trunk\VS2005\gridlabd-2_0"
module powerflow {
	solver_method NR;
};
module assert;

object overhead_line_conductor:100 {
	geometric_mean_radius 0.0244;
	resistance 0.306;
}

object overhead_line_conductor:101 {
	geometric_mean_radius 0.00814;
	resistance 0.592;
}

object line_spacing:200 {
	distance_AB 2.5;
	distance_BC 4.5;
	distance_AC 7.0;
	distance_AN 5.656854;
	distance_BN 4.272002;
	distance_CN 5.0;
}

object line_spacing:201 {
	distance_AB 2.5;
	distance_AN 5.656854;
	distance_BN 4.272002;
}

object line_configuration:300 {
	conductor_A overhead_line_conductor:100;
	conductor_B overhead_line_conductor:100;
	conductor_C overhead_line_conductor:100;
	conductor_N overhead_line_conductor:101;
	spacing line_spacing:200;
}

object line_configuration:301 {
	conductor_A overhead_line_conductor:100;
	conductor_B overhead_line_conductor:100;
	conductor_N overhead_line_conductor:101;
	spacing line_spacing:201;
}

object transformer_configuration:400 {
	connect_type DELTA_GWYE;
	install_type PADMOUNT;
	power_rating 6000;
	primary_voltage 12470;
	secondary_voltage 4160;
	resistance 0.01;
	reactance 0.06;
}

object node:1 {
	phases "ABCD";
	bustype SWING;
	voltage_A +7199.558+0.000j;
	voltage_B -3599.779-6235.000j;
	voltage_C -3599.779+6235.000j;
	nominal_voltage 7200;
}

object overhead_line:12 {
	phases "ABCD";
	from node:1;
	to node:2;
	length 2000;
	configuration line_configuration:300;
}

object node:2 {
	phases "ABCD";
	voltage_A +7199.558+0.000j;
	voltage_B -3599.779-6235.000j;
	voltage_C -3599.779+6235.000j;
	nominal_voltage 7200;
	object complex_assert {
		target voltage_AB;
		within 5;
		value +12338.3+29.9886d ;
	};
	object complex_assert {
		target voltage_BC;
		within 5;
		value +12441.7-90.2092d  ;
	};
	object complex_assert {
		target voltage_CA;
		within 5;
		value +12353.2+149.474d ;
	};		
}

object transformer:23 {
	phases "ABCN";
	from node:2;
	to node:3;
	configuration transformer_configuration:400;
}

object node:3 {
	phases "ABCN";
	voltage_A +2401.777+0.000j;
	voltage_B -1200.889-2080.000j;
	voltage_C -1200.889+2080.000j;
	nominal_voltage 2400;
	object complex_assert {
		target voltage_AB;
		within 5;
		value +3861.13-3.44325d ;
	};
	object complex_assert {
		target voltage_BC;
		within 5;
		value +3976.25-120.471d ;
	};
	object complex_assert {
		target voltage_CA;
		within 5;
		value +4094.6+116.669d ;
	};		
}

object overhead_line:34 {
	phases "ABN";
	from node:3;
	to load:4;
	length 2500;
	configuration line_configuration:301;
}

object load:4 {
	phases "ABN";
	voltage_A +2401.777+0.000j;
	voltage_B -1200.889-2080.000j;
	constant_power_A +1800000.000+871779.789j;
	constant_power_B +1800000.000+871779.789j;
	maximum_voltage_error 0.001;
	nominal_voltage 2400;
	object complex_assert {
		target voltage_AB;
		within 5;
		value +3341.48-7.42235d ;
	};
	object complex_assert {
		target voltage_BC;
		within 5;
		value +2126.67-162.584d ;
	};
	object complex_assert {
		target voltage_CA;
		within 5;
		value +1670.48+140.249d ;
	};		
}

